dc transfer function
r1 1 2 1k
r2 1 0 1meg
v1 1 0 dc=0
v2 2 0 dc=0
.control
*set filetype=ascii
.endc
.dc v1 0.5 1 0.1 v2 0.5 1 0.1 
.plot all
